114
XYZ file generated by write_xyz function
C 4.98175300 2.90827800 -0.27740200
C 6.21605900 2.19476000 -0.27601500
C 7.44848300 2.90819500 -0.29008500
C 8.68208600 2.19216900 -0.25657600
C 9.92316400 2.90429400 -0.26115600
C 11.16445400 2.19250100 -0.24327800
C 12.39762700 2.90881300 -0.26970700
C 4.98162500 4.33405700 -0.28481300
C 6.21475200 5.04858000 -0.31206400
C 7.44676800 4.33544300 -0.32797800
C 8.67904300 5.05532400 -0.36884400
C 9.92324400 4.34073300 -0.34430000
C 11.16695900 5.05544300 -0.35156100
C 12.39908300 4.33571700 -0.30583900
C 13.63075500 5.04850200 -0.29403600
C 6.21717800 6.47492300 -0.31842300
C 7.45117100 7.18876500 -0.35125000
C 8.68547700 6.48098600 -0.38724600
C 9.92265300 7.18940800 -0.38194700
C 11.16004100 6.48026100 -0.36718500
C 12.39462600 7.18867000 -0.32817000
C 13.62850000 6.47488100 -0.29992600
C 14.86294600 7.18636600 -0.27839000
C 7.45265900 8.61373400 -0.32766400
C 8.68791800 9.32506800 -0.32888300
C 9.92338700 8.61322700 -0.34918200
C 11.15875000 9.32495700 -0.32051400
C 12.39373100 8.61336200 -0.31188500
C 13.62825500 9.32430500 -0.28407400
C 14.86293200 8.61212500 -0.27373700
C 16.09845500 9.32488900 -0.26224100
C 8.68867100 10.75062800 -0.29836500
C 9.92333500 11.46304800 -0.29020100
C 11.15801300 10.75021100 -0.29604100
C 12.39312000 11.46307500 -0.27996200
C 13.62764700 10.75062200 -0.27493800
C 14.86266500 11.46317400 -0.26112800
C 16.09823200 10.75106000 -0.25505400
C 4.98175300 2.90827800 3.22259800
C 6.21605900 2.19476000 3.22398500
C 7.44848300 2.90819500 3.20991500
C 8.68208600 2.19216900 3.24342400
C 9.92316400 2.90429400 3.23884400
C 11.16445400 2.19250100 3.25672200
C 12.39762700 2.90881300 3.23029300
C 4.98162500 4.33405700 3.21518700
C 6.21475200 5.04858000 3.18793600
C 7.44676800 4.33544300 3.17202200
C 8.67904300 5.05532400 3.13115600
C 9.92324400 4.34073300 3.15570000
C 11.16695900 5.05544300 3.14843900
C 12.39908300 4.33571700 3.19416100
C 13.63075500 5.04850200 3.20596400
C 6.21717800 6.47492300 3.18157700
C 7.45117100 7.18876500 3.14875000
C 8.68547700 6.48098600 3.11275400
C 9.92265300 7.18940800 3.11805300
C 11.16004100 6.48026100 3.13281500
C 12.39462600 7.18867000 3.17183000
C 13.62850000 6.47488100 3.20007400
C 14.86294600 7.18636600 3.22161000
C 7.45265900 8.61373400 3.17233600
C 8.68791800 9.32506800 3.17111700
C 9.92338700 8.61322700 3.15081800
C 11.15875000 9.32495700 3.17948600
C 12.39373100 8.61336200 3.18811500
C 13.62825500 9.32430500 3.21592600
C 14.86293200 8.61212500 3.22626300
C 16.09845500 9.32488900 3.23775900
C 8.68867100 10.75062800 3.20163500
C 9.92333500 11.46304800 3.20979900
C 11.15801300 10.75021100 3.20395900
C 12.39312000 11.46307500 3.22003800
C 13.62764700 10.75062200 3.22506200
C 14.86266500 11.46317400 3.23887200
C 16.09823200 10.75106000 3.24494600
C 4.98175300 2.90827800 6.72259800
C 6.21605900 2.19476000 6.72398500
C 7.44848300 2.90819500 6.70991500
C 8.68208600 2.19216900 6.74342400
C 9.92316400 2.90429400 6.73884400
C 11.16445400 2.19250100 6.75672200
C 12.39762700 2.90881300 6.73029300
C 4.98162500 4.33405700 6.71518700
C 6.21475200 5.04858000 6.68793600
C 7.44676800 4.33544300 6.67202200
C 8.67904300 5.05532400 6.63115600
C 9.92324400 4.34073300 6.65570000
C 11.16695900 5.05544300 6.64843900
C 12.39908300 4.33571700 6.69416100
C 13.63075500 5.04850200 6.70596400
C 6.21717800 6.47492300 6.68157700
C 7.45117100 7.18876500 6.64875000
C 8.68547700 6.48098600 6.61275400
C 9.92265300 7.18940800 6.61805300
C 11.16004100 6.48026100 6.63281500
C 12.39462600 7.18867000 6.67183000
C 13.62850000 6.47488100 6.70007400
C 14.86294600 7.18636600 6.72161000
C 7.45265900 8.61373400 6.67233600
C 8.68791800 9.32506800 6.67111700
C 9.92338700 8.61322700 6.65081800
C 11.15875000 9.32495700 6.67948600
C 12.39373100 8.61336200 6.68811500
C 13.62825500 9.32430500 6.71592600
C 14.86293200 8.61212500 6.72626300
C 16.09845500 9.32488900 6.73775900
C 8.68867100 10.75062800 6.70163500
C 9.92333500 11.46304800 6.70979900
C 11.15801300 10.75021100 6.70395900
C 12.39312000 11.46307500 6.72003800
C 13.62764700 10.75062200 6.72506200
C 14.86266500 11.46317400 6.73887200
C 16.09823200 10.75106000 6.74494600
