288
XYZ file generated by write_xyz function
C 0.04367300 0.05558600 -0.26612700
C 1.27877500 0.76846500 -0.26959900
C 2.51336400 0.05515000 -0.27622000
C 3.74783800 0.76816600 -0.27320100
C 4.98270800 0.05481200 -0.27274900
C 6.21699500 0.76767000 -0.26700700
C 7.45124300 0.05448100 -0.25692600
C 8.68646800 0.76685400 -0.24193500
C 9.92329400 0.05568500 -0.23346000
C 11.15977000 0.76749200 -0.22979200
C 12.39513000 0.05506800 -0.24203400
C 13.62902600 0.76850900 -0.25270900
C 1.27882600 2.19455200 -0.26695600
C 2.51312500 2.90775300 -0.26859200
C 3.74770800 2.19414000 -0.27111300
C 4.98175300 2.90827800 -0.27740200
C 6.21605900 2.19476000 -0.27601500
C 7.44848300 2.90819500 -0.29008500
C 8.68208600 2.19216900 -0.25657600
C 9.92316400 2.90429400 -0.26115600
C 11.16445400 2.19250100 -0.24327800
C 12.39762700 2.90881300 -0.26970700
C 13.63034100 2.19557700 -0.26008000
C 14.86470300 2.90885500 -0.26803800
C 2.51316500 4.33415900 -0.26865000
C 3.74758200 5.04764100 -0.27436300
C 4.98162500 4.33405700 -0.28481300
C 6.21475200 5.04858000 -0.31206400
C 7.44676800 4.33544300 -0.32797800
C 8.67904300 5.05532400 -0.36884400
C 9.92324400 4.34073300 -0.34430000
C 11.16695900 5.05544300 -0.35156100
C 12.39908300 4.33571700 -0.30583900
C 13.63075500 5.04850200 -0.29403600
C 14.86479900 4.33442500 -0.27489900
C 16.09878700 5.04778400 -0.27015800
C 3.74840100 6.47344500 -0.27377800
C 4.98333800 7.18656600 -0.28813100
C 6.21717800 6.47492300 -0.31842300
C 7.45117100 7.18876500 -0.35125000
C 8.68547700 6.48098600 -0.38724600
C 9.92265300 7.18940800 -0.38194700
C 11.16004100 6.48026100 -0.36718500
C 12.39462600 7.18867000 -0.32817000
C 13.62850000 6.47488100 -0.29992600
C 14.86294600 7.18636600 -0.27839000
C 16.09843100 6.47364600 -0.26964600
C 17.33343500 7.18613200 -0.26630700
C 4.98373000 8.61247700 -0.28033900
C 6.21793500 9.32482700 -0.29203400
C 7.45265900 8.61373400 -0.32766400
C 8.68791800 9.32506800 -0.32888300
C 9.92338700 8.61322700 -0.34918200
C 11.15875000 9.32495700 -0.32051400
C 12.39373100 8.61336200 -0.31188500
C 13.62825500 9.32430500 -0.28407400
C 14.86293200 8.61212500 -0.27373700
C 16.09845500 9.32488900 -0.26224100
C 17.33353600 8.61258000 -0.26249500
C 18.56842800 9.32507900 -0.26363300
C 6.21867800 10.75124900 -0.27497200
C 7.45325500 11.46380700 -0.27924000
C 8.68867100 10.75062800 -0.29836500
C 9.92333500 11.46304800 -0.29020100
C 11.15801300 10.75021100 -0.29604100
C 12.39312000 11.46307500 -0.27996200
C 13.62764700 10.75062200 -0.27493800
C 14.86266500 11.46317400 -0.26112800
C 16.09823200 10.75106000 -0.25505400
C 17.33346200 11.46398700 -0.24382900
C 18.56888000 10.75099900 -0.25231700
C 19.80377400 11.46363600 -0.25425900
C 0.04367300 0.05558600 3.73387300
C 1.27877500 0.76846500 3.73040100
C 2.51336400 0.05515000 3.72378000
C 3.74783800 0.76816600 3.72679900
C 4.98270800 0.05481200 3.72725100
C 6.21699500 0.76767000 3.73299300
C 7.45124300 0.05448100 3.74307400
C 8.68646800 0.76685400 3.75806500
C 9.92329400 0.05568500 3.76654000
C 11.15977000 0.76749200 3.77020800
C 12.39513000 0.05506800 3.75796600
C 13.62902600 0.76850900 3.74729100
C 1.27882600 2.19455200 3.73304400
C 2.51312500 2.90775300 3.73140800
C 3.74770800 2.19414000 3.72888700
C 4.98175300 2.90827800 3.72259800
C 6.21605900 2.19476000 3.72398500
C 7.44848300 2.90819500 3.70991500
C 8.68208600 2.19216900 3.74342400
C 9.92316400 2.90429400 3.73884400
C 11.16445400 2.19250100 3.75672200
C 12.39762700 2.90881300 3.73029300
C 13.63034100 2.19557700 3.73992000
C 14.86470300 2.90885500 3.73196200
C 2.51316500 4.33415900 3.73135000
C 3.74758200 5.04764100 3.72563700
C 4.98162500 4.33405700 3.71518700
C 6.21475200 5.04858000 3.68793600
C 7.44676800 4.33544300 3.67202200
C 8.67904300 5.05532400 3.63115600
C 9.92324400 4.34073300 3.65570000
C 11.16695900 5.05544300 3.64843900
C 12.39908300 4.33571700 3.69416100
C 13.63075500 5.04850200 3.70596400
C 14.86479900 4.33442500 3.72510100
C 16.09878700 5.04778400 3.72984200
C 3.74840100 6.47344500 3.72622200
C 4.98333800 7.18656600 3.71186900
C 6.21717800 6.47492300 3.68157700
C 7.45117100 7.18876500 3.64875000
C 8.68547700 6.48098600 3.61275400
C 9.92265300 7.18940800 3.61805300
C 11.16004100 6.48026100 3.63281500
C 12.39462600 7.18867000 3.67183000
C 13.62850000 6.47488100 3.70007400
C 14.86294600 7.18636600 3.72161000
C 16.09843100 6.47364600 3.73035400
C 17.33343500 7.18613200 3.73369300
C 4.98373000 8.61247700 3.71966100
C 6.21793500 9.32482700 3.70796600
C 7.45265900 8.61373400 3.67233600
C 8.68791800 9.32506800 3.67111700
C 9.92338700 8.61322700 3.65081800
C 11.15875000 9.32495700 3.67948600
C 12.39373100 8.61336200 3.68811500
C 13.62825500 9.32430500 3.71592600
C 14.86293200 8.61212500 3.72626300
C 16.09845500 9.32488900 3.73775900
C 17.33353600 8.61258000 3.73750500
C 18.56842800 9.32507900 3.73636700
C 6.21867800 10.75124900 3.72502800
C 7.45325500 11.46380700 3.72076000
C 8.68867100 10.75062800 3.70163500
C 9.92333500 11.46304800 3.70979900
C 11.15801300 10.75021100 3.70395900
C 12.39312000 11.46307500 3.72003800
C 13.62764700 10.75062200 3.72506200
C 14.86266500 11.46317400 3.73887200
C 16.09823200 10.75106000 3.74494600
C 17.33346200 11.46398700 3.75617100
C 18.56888000 10.75099900 3.74768300
C 19.80377400 11.46363600 3.74574100
C 0.04367300 0.05558600 7.73387300
C 1.27877500 0.76846500 7.73040100
C 2.51336400 0.05515000 7.72378000
C 3.74783800 0.76816600 7.72679900
C 4.98270800 0.05481200 7.72725100
C 6.21699500 0.76767000 7.73299300
C 7.45124300 0.05448100 7.74307400
C 8.68646800 0.76685400 7.75806500
C 9.92329400 0.05568500 7.76654000
C 11.15977000 0.76749200 7.77020800
C 12.39513000 0.05506800 7.75796600
C 13.62902600 0.76850900 7.74729100
C 1.27882600 2.19455200 7.73304400
C 2.51312500 2.90775300 7.73140800
C 3.74770800 2.19414000 7.72888700
C 4.98175300 2.90827800 7.72259800
C 6.21605900 2.19476000 7.72398500
C 7.44848300 2.90819500 7.70991500
C 8.68208600 2.19216900 7.74342400
C 9.92316400 2.90429400 7.73884400
C 11.16445400 2.19250100 7.75672200
C 12.39762700 2.90881300 7.73029300
C 13.63034100 2.19557700 7.73992000
C 14.86470300 2.90885500 7.73196200
C 2.51316500 4.33415900 7.73135000
C 3.74758200 5.04764100 7.72563700
C 4.98162500 4.33405700 7.71518700
C 6.21475200 5.04858000 7.68793600
C 7.44676800 4.33544300 7.67202200
C 8.67904300 5.05532400 7.63115600
C 9.92324400 4.34073300 7.65570000
C 11.16695900 5.05544300 7.64843900
C 12.39908300 4.33571700 7.69416100
C 13.63075500 5.04850200 7.70596400
C 14.86479900 4.33442500 7.72510100
C 16.09878700 5.04778400 7.72984200
C 3.74840100 6.47344500 7.72622200
C 4.98333800 7.18656600 7.71186900
C 6.21717800 6.47492300 7.68157700
C 7.45117100 7.18876500 7.64875000
C 8.68547700 6.48098600 7.61275400
C 9.92265300 7.18940800 7.61805300
C 11.16004100 6.48026100 7.63281500
C 12.39462600 7.18867000 7.67183000
C 13.62850000 6.47488100 7.70007400
C 14.86294600 7.18636600 7.72161000
C 16.09843100 6.47364600 7.73035400
C 17.33343500 7.18613200 7.73369300
C 4.98373000 8.61247700 7.71966100
C 6.21793500 9.32482700 7.70796600
C 7.45265900 8.61373400 7.67233600
C 8.68791800 9.32506800 7.67111700
C 9.92338700 8.61322700 7.65081800
C 11.15875000 9.32495700 7.67948600
C 12.39373100 8.61336200 7.68811500
C 13.62825500 9.32430500 7.71592600
C 14.86293200 8.61212500 7.72626300
C 16.09845500 9.32488900 7.73775900
C 17.33353600 8.61258000 7.73750500
C 18.56842800 9.32507900 7.73636700
C 6.21867800 10.75124900 7.72502800
C 7.45325500 11.46380700 7.72076000
C 8.68867100 10.75062800 7.70163500
C 9.92333500 11.46304800 7.70979900
C 11.15801300 10.75021100 7.70395900
C 12.39312000 11.46307500 7.72003800
C 13.62764700 10.75062200 7.72506200
C 14.86266500 11.46317400 7.73887200
C 16.09823200 10.75106000 7.74494600
C 17.33346200 11.46398700 7.75617100
C 18.56888000 10.75099900 7.74768300
C 19.80377400 11.46363600 7.74574100
C 0.04367300 0.05558600 11.73387300
C 1.27877500 0.76846500 11.73040100
C 2.51336400 0.05515000 11.72378000
C 3.74783800 0.76816600 11.72679900
C 4.98270800 0.05481200 11.72725100
C 6.21699500 0.76767000 11.73299300
C 7.45124300 0.05448100 11.74307400
C 8.68646800 0.76685400 11.75806500
C 9.92329400 0.05568500 11.76654000
C 11.15977000 0.76749200 11.77020800
C 12.39513000 0.05506800 11.75796600
C 13.62902600 0.76850900 11.74729100
C 1.27882600 2.19455200 11.73304400
C 2.51312500 2.90775300 11.73140800
C 3.74770800 2.19414000 11.72888700
C 4.98175300 2.90827800 11.72259800
C 6.21605900 2.19476000 11.72398500
C 7.44848300 2.90819500 11.70991500
C 8.68208600 2.19216900 11.74342400
C 9.92316400 2.90429400 11.73884400
C 11.16445400 2.19250100 11.75672200
C 12.39762700 2.90881300 11.73029300
C 13.63034100 2.19557700 11.73992000
C 14.86470300 2.90885500 11.73196200
C 2.51316500 4.33415900 11.73135000
C 3.74758200 5.04764100 11.72563700
C 4.98162500 4.33405700 11.71518700
C 6.21475200 5.04858000 11.68793600
C 7.44676800 4.33544300 11.67202200
C 8.67904300 5.05532400 11.63115600
C 9.92324400 4.34073300 11.65570000
C 11.16695900 5.05544300 11.64843900
C 12.39908300 4.33571700 11.69416100
C 13.63075500 5.04850200 11.70596400
C 14.86479900 4.33442500 11.72510100
C 16.09878700 5.04778400 11.72984200
C 3.74840100 6.47344500 11.72622200
C 4.98333800 7.18656600 11.71186900
C 6.21717800 6.47492300 11.68157700
C 7.45117100 7.18876500 11.64875000
C 8.68547700 6.48098600 11.61275400
C 9.92265300 7.18940800 11.61805300
C 11.16004100 6.48026100 11.63281500
C 12.39462600 7.18867000 11.67183000
C 13.62850000 6.47488100 11.70007400
C 14.86294600 7.18636600 11.72161000
C 16.09843100 6.47364600 11.73035400
C 17.33343500 7.18613200 11.73369300
C 4.98373000 8.61247700 11.71966100
C 6.21793500 9.32482700 11.70796600
C 7.45265900 8.61373400 11.67233600
C 8.68791800 9.32506800 11.67111700
C 9.92338700 8.61322700 11.65081800
C 11.15875000 9.32495700 11.67948600
C 12.39373100 8.61336200 11.68811500
C 13.62825500 9.32430500 11.71592600
C 14.86293200 8.61212500 11.72626300
C 16.09845500 9.32488900 11.73775900
C 17.33353600 8.61258000 11.73750500
C 18.56842800 9.32507900 11.73636700
C 6.21867800 10.75124900 11.72502800
C 7.45325500 11.46380700 11.72076000
C 8.68867100 10.75062800 11.70163500
C 9.92333500 11.46304800 11.70979900
C 11.15801300 10.75021100 11.70395900
C 12.39312000 11.46307500 11.72003800
C 13.62764700 10.75062200 11.72506200
C 14.86266500 11.46317400 11.73887200
C 16.09823200 10.75106000 11.74494600
C 17.33346200 11.46398700 11.75617100
C 18.56888000 10.75099900 11.74768300
C 19.80377400 11.46363600 11.74574100
